8
C4H4
C    0.993839166  -0.99383917  0.99383917
C    -0.993839166  0.99383917  0.99383917
C    -0.993839166  -0.99383917  -0.99383917
C    0.993839166  0.99383917  -0.99383917
H    2.180530302  -2.1805303  2.1805303
H    -2.180530302  2.1805303  2.1805303
H    -2.180530302  -2.1805303  -2.1805303
H    2.180530302  2.1805303  -2.1805303
