8
Li4Cl4
Li    2.744331073  -1.94051594  0.0
Li    6.76321E-07  1.94051446  2.74434045
Li    -2.744346731  -1.94050439  0.0
Li    6.76321E-07  1.94051446  -2.74434045
Cl    3.455595318  2.44348827  0.0
Cl    -3.77173E-06  -2.44349842  3.4555889
Cl    -3.455573619  2.44349994  0.0
Cl    -3.77173E-06  -2.44349842  -3.4555889
