8
Li4H4
Li    1.700805817  -1.70080582  1.70080582
Li    -1.700805817  1.70080582  1.70080582
Li    -1.700805817  -1.70080582  -1.70080582
Li    1.700805817  1.70080582  -1.70080582
H    -1.85949803  -1.85949803  1.85949803
H    -1.85949803  1.85949803  -1.85949803
H    1.85949803  -1.85949803  -1.85949803
H    1.85949803  1.85949803  1.85949803
