9
Ni(CO)4
Ni    0.0  0.0  0.0
C    1.983263782  -1.98326378  1.98326378
C    -1.983263782  1.98326378  1.98326378
C    -1.983263782  -1.98326378  -1.98326378
C    1.983263782  1.98326378  -1.98326378
O    3.242736541  -3.24273654  3.24273654
O    -3.242736541  3.24273654  3.24273654
O    -3.242736541  -3.24273654  -3.24273654
O    3.242736541  3.24273654  -3.24273654
