6

Db      -3.40150677948e-05      0.0005140054688992      -0.4998325239847
H      -1.32280819202e-05      -0.0006481760140898      -4.029370128918338
H      2.170422107494667      -2.170586513655675      1.1263258220813035
H      2.1712082335059244      2.1706772205031277      1.1268643939880547
H      -2.1711609903562095      2.1707811554325005      1.1269210857677125
H      -2.170420217768678      -2.170737691734763      1.126204879618033
