5

Rf      -4.53534237264e-05      -0.0001662958869968      9.637602541859999e-05
F      2.207808446453129      -2.2076194738542694      2.2078349026169697
F      -2.207473964953147      2.2077177396056764      2.207540105362748
F      -2.2075778998825197      -2.207426721803432      -2.207899153300582
F      2.2072887718062644      2.207492862213033      -2.207572230704554
