5

Fl      -7.936849152119999e-05      4.7243149715e-05      9.637602541859999e-05
H      2.1151079380823563      -2.115141953150151      2.1148150305541233
H      -2.115147622328117      2.115117386712299      2.114890619593667
H      -2.114962429181234      -2.1150342387688004      -2.1148622737038383
H      2.115079592192527      2.1150115620569374      -2.114939752469371
