12
B3N3H6
B    2.75503009  -3.2394E-06  0.0
N    1.337081672  2.31531468  0.0
B    -1.377628695  2.38537342  0.0
N    -2.674352766  2.1182E-06  0.0
B    -1.377643378  -2.38537457  0.0
N    1.337068513  -2.31531513  0.0
H    5.05300246  -8.0498E-06  0.0
H    2.301839999  3.98629278  0.0
H    -2.52609076  4.37610355  0.0
H    -4.604039204  4.1696E-06  0.0
H    -2.526102963  -4.37610284  0.0
H    2.301835032  -3.98628689  0.0
