9
BeC2H6
Be    0.0  0.0  0.0
C    -0.000200446  3.18689982  0.0
C    0.000200446  -3.18689982  0.0
H    1.942774435  3.9948363  0.0
H    0.97131509  -3.99480785  -1.68303203
H    -0.97131509  3.99480785  -1.68303203
H    -1.942774435  -3.9948363  0.0
H    -0.97131509  3.99480785  1.68303203
H    0.97131509  -3.99480785  1.68303203
