13
Mo(CO)6
Mo    0.0  0.0  0.0
C    0.0  3.90295653  0.0
C    0.0  0.0  3.90295653
C    3.902956526  0.0  0.0
C    0.0  0.0  -3.90295653
C    -3.902956526  0.0  0.0
C    0.0  -3.90295653  0.0
O    0.0  6.09006161  0.0
O    0.0  0.0  6.09006161
O    6.090061608  0.0  0.0
O    0.0  0.0  -6.09006161
O    -6.090061608  0.0  0.0
O    0.0  -6.09006161  0.0
