9
Pd(CO)4
Pd    0.0  0.0  0.0
C    2.183511185  -2.18351119  2.18351119
C    -2.183511185  2.18351119  2.18351119
C    -2.183511185  -2.18351119  -2.18351119
C    2.183511185  2.18351119  -2.18351119
O    3.440649462  -3.44064946  3.44064946
O    -3.440649462  3.44064946  3.44064946
O    -3.440649462  -3.44064946  -3.44064946
O    3.440649462  3.44064946  -3.44064946
