9
Ti(CO)4
Ti    0.0  0.0  0.0
C    2.252096098  -2.2520961  2.2520961
C    -2.252096098  2.2520961  2.2520961
C    -2.252096098  -2.2520961  -2.2520961
C    2.252096098  2.2520961  -2.2520961
O    3.522940802  -3.5229408  3.5229408
O    -3.522940802  3.5229408  3.5229408
O    -3.522940802  -3.5229408  -3.5229408
O    3.522940802  3.5229408  -3.5229408
