11
Ru(CO)5
Ru    0.0  0.0  0.0
C    1.844800115  -3.19528753  0.0
C    1.844800115  3.19528753  0.0
C    -3.689600231  0.0  0.0
C    0.0  0.0  3.69125554
C    0.0  0.0  -3.69125554
O    2.940394902  -5.09291336  0.0
O    2.940394902  5.09291336  0.0
O    -5.880789804  0.0  0.0
O    0.0  0.0  5.87379294
O    0.0  0.0  -5.87379294
